/PREP7
ET,1,BEAM188
MP,EX,1,2.1E5
MP,PRXY,1,0.3
SECTYPE,1,BEAM,RECT
SECDATA,50,100
N,1,0,0,0
N,2,100,0,0
N,3,200,0,0
N,4,300,0,0
N,5,400,0,0
N,6,500,0,0
N,7,600,0,0
N,8,700,0,0
N,9,800,0,0
N,10,900,0,0
N,11,1000,0,0
E,1,2
E,2,3
E,3,4
E,4,5
E,5,6
E,6,7
E,7,8
E,8,9
E,9,10
E,10,11
FINISH
